          13
 Generated by KLMC  -64.885972820000006     
Pt    1.5675637010    2.9886006042   -0.6657686597
Pt    3.5768955871   -1.3368725711    0.5728487584
Pt    1.0504903058   -1.3735460703    1.9797596206
Pt   -0.9515903297    0.7190984963    2.7411366022
Pt   -2.4900575144   -2.9886006042   -2.7798113537
Pt    1.8749091086   -2.9788569755    0.7118568776
Pt   -1.2131741731   -1.7446160120    0.9687453767
Pt   -2.7836967131   -0.6282437619    2.7798113537
Pt   -3.5768955871   -2.2776029040    0.5043832621
Pt   -0.0863042444    0.0323038431   -0.2546031413
Pt    0.5020000128   -1.7071117258   -2.6188459868
Pt   -0.6289584247    2.2691504414   -1.3646556631
Pt   -3.3290386065    1.7148292175   -0.4005923738
